     752
CELL:    18.346000     0.000000     0.000000     0.000000    18.346000     0.000000     0.000000     0.000000    18.346000
Zr  2.541000000  9.362000000  0.201000000
Zr  15.808000000  8.979000000  18.141000000
Zr  6.635000000  18.155000000  0.201000000
Zr  11.714000000  0.193000000  18.141000000
Zr  6.635000000  9.362000000  8.974000000
Zr  11.714000000  8.979000000  9.380000000
Zr  2.541000000  18.155000000  8.974000000
Zr  15.808000000  0.193000000  9.380000000
Zr  0.202000000  2.539000000  9.364000000
Zr  18.141000000  15.806000000  8.980000000
Zr  0.202000000  6.633000000  18.157000000
Zr  18.141000000  11.711000000  0.195000000
Zr  8.974000000  6.633000000  9.364000000
Zr  9.381000000  11.711000000  8.980000000
Zr  8.974000000  2.539000000  18.157000000
Zr  9.381000000  15.806000000  0.195000000
Zr  9.364000000  0.199000000  2.540000000
Zr  8.981000000  18.139000000  15.808000000
Zr  18.158000000  0.199000000  6.635000000
Zr  0.195000000  18.139000000  11.713000000
Zr  9.364000000  8.972000000  6.635000000
Zr  8.981000000  9.378000000  11.713000000
Zr  18.158000000  8.972000000  2.540000000
Zr  0.195000000  9.378000000  15.808000000
 O  3.754000000  7.438000000  0.134000000
 O  14.596000000  10.914000000  18.218000000
 O  5.422000000  1.734000000  0.134000000
 O  12.926000000  16.603000000  18.218000000
 O  5.422000000  7.438000000  9.041000000
 O  12.926000000  10.914000000  9.303000000
 O  3.754000000  1.734000000  9.041000000
 O  14.596000000  16.603000000  9.303000000
 O  0.135000000  3.752000000  7.440000000
 O  18.218000000  14.593000000  10.916000000
 O  0.135000000  5.420000000  1.735000000
 O  18.218000000  12.924000000  16.605000000
 O  9.041000000  5.420000000  7.440000000
 O  9.304000000  12.924000000  10.916000000
 O  9.041000000  3.752000000  1.735000000
 O  9.304000000  14.593000000  16.605000000
 O  7.440000000  0.133000000  3.754000000
 O  10.917000000  18.216000000  14.595000000
 O  1.736000000  0.133000000  5.421000000
 O  16.605000000  18.216000000  12.926000000
 O  7.440000000  9.039000000  5.421000000
 O  10.917000000  9.301000000  12.926000000
 O  1.736000000  9.039000000  3.754000000
 O  16.605000000  9.301000000  14.595000000
 O  3.428000000  11.482000000  0.384000000
 O  14.916000000  6.856000000  17.958000000
 O  5.747000000  16.036000000  0.384000000
 O  12.605000000  2.315000000  17.958000000
 O  5.747000000  11.482000000  8.791000000
 O  12.605000000  6.856000000  9.563000000
 O  3.428000000  16.036000000  8.791000000
 O  14.916000000  2.315000000  9.563000000
 O  0.384000000  3.426000000  11.483000000
 O  17.958000000  14.914000000  6.858000000
 O  0.384000000  5.745000000  16.038000000
 O  17.958000000  12.603000000  2.317000000
 O  8.791000000  5.745000000  11.483000000
 O  9.563000000  12.603000000  6.858000000
 O  8.791000000  3.426000000  16.038000000
 O  9.563000000  14.914000000  2.317000000
 O  11.484000000  0.382000000  3.428000000
 O  6.859000000  17.956000000  14.916000000
 O  16.038000000  0.382000000  5.747000000
 O  2.317000000  17.956000000  12.605000000
 O  11.484000000  8.789000000  5.747000000
 O  6.859000000  9.561000000  12.605000000
 O  16.038000000  8.789000000  3.428000000
 O  2.317000000  9.561000000  14.916000000
 O  3.426000000  9.271000000  2.326000000
 O  14.921000000  9.065000000  16.030000000
 O  5.750000000  18.246000000  2.326000000
 O  12.601000000  0.106000000  16.030000000
 O  5.750000000  9.271000000  6.849000000
 O  12.601000000  9.065000000  11.491000000
 O  3.426000000  18.246000000  6.849000000
 O  14.921000000  0.106000000  11.491000000
 O  2.326000000  3.424000000  9.273000000
 O  16.030000000  14.919000000  9.067000000
 O  2.326000000  5.748000000  18.248000000
 O  16.030000000  12.598000000  0.108000000
 O  6.850000000  5.748000000  9.273000000
 O  11.492000000  12.598000000  9.067000000
 O  6.850000000  3.424000000  18.248000000
 O  11.492000000  14.919000000  0.108000000
 O  9.273000000  2.324000000  3.426000000
 O  9.067000000  16.028000000  14.921000000
 O  18.248000000  2.324000000  5.749000000
 O  0.109000000  16.028000000  12.600000000
 O  9.273000000  6.848000000  5.749000000
 O  9.067000000  11.490000000  12.600000000
 O  18.248000000  6.848000000  3.426000000
 O  0.109000000  11.490000000  14.921000000
 O  3.755000000  9.549000000  16.611000000
 O  14.600000000  8.798000000  1.732000000
 O  5.421000000  17.968000000  16.611000000
 O  12.922000000  0.373000000  1.732000000
 O  5.421000000  9.549000000  10.910000000
 O  12.922000000  8.798000000  7.443000000
 O  3.755000000  17.968000000  10.910000000
 O  14.600000000  0.373000000  7.443000000
 O  16.611000000  3.753000000  9.551000000
 O  1.733000000  14.598000000  8.800000000
 O  16.611000000  5.418000000  17.970000000
 O  1.733000000  12.919000000  0.375000000
 O  10.910000000  5.418000000  9.551000000
 O  7.443000000  12.919000000  8.800000000
 O  10.910000000  3.753000000  17.970000000
 O  7.443000000  14.598000000  0.375000000
 O  9.551000000  16.609000000  3.755000000
 O  8.801000000  1.730000000  14.600000000
 O  17.971000000  16.609000000  5.420000000
 O  0.375000000  1.730000000  12.921000000
 O  9.551000000  10.908000000  5.420000000
 O  8.801000000  7.441000000  12.921000000
 O  17.971000000  10.908000000  3.755000000
 O  0.375000000  7.441000000  14.600000000
 O  10.490000000  17.381000000  1.135000000
 O  1.144000000  8.029000000  1.144000000
 O  17.104000000  10.416000000  17.103000000
 O  8.031000000  1.142000000  1.144000000
 O  10.418000000  17.101000000  17.103000000
 O  8.031000000  8.029000000  8.031000000
 O  10.418000000  10.416000000  10.418000000
 O  1.144000000  1.142000000  8.031000000
 O  17.104000000  17.101000000  10.418000000
 O  1.135000000  10.487000000  17.383000000
 O  17.114000000  7.747000000  1.050000000
 O  8.041000000  17.030000000  17.383000000
 O  10.408000000  1.424000000  1.050000000
 O  8.041000000  10.487000000  10.138000000
 O  10.408000000  7.747000000  8.125000000
 O  1.135000000  17.030000000  10.138000000
 O  17.114000000  1.424000000  8.125000000
 O  17.384000000  1.133000000  10.489000000
 O  1.050000000  17.112000000  7.749000000
 O  17.384000000  8.039000000  17.032000000
 O  1.050000000  10.405000000  1.426000000
 O  10.138000000  8.039000000  10.489000000
 O  8.125000000  10.405000000  7.749000000
 O  10.138000000  1.133000000  17.032000000
 O  8.125000000  17.112000000  1.426000000
 O  7.749000000  1.048000000  17.114000000
 O  17.032000000  17.381000000  8.041000000
 O  1.427000000  1.048000000  10.407000000
 O  10.490000000  10.136000000  8.041000000
 O  7.749000000  8.123000000  10.407000000
 O  17.032000000  10.136000000  1.135000000
 O  1.427000000  8.123000000  17.114000000
 C  2.975000000  12.663000000  0.358000000
 C  15.372000000  5.677000000  17.897000000
 C  6.201000000  14.854000000  0.358000000
 C  12.150000000  3.494000000  17.897000000
 C  6.201000000  12.663000000  8.817000000
 C  12.150000000  5.677000000  9.624000000
 C  2.975000000  14.854000000  8.817000000
 C  15.372000000  3.494000000  9.624000000
 C  0.359000000  2.972000000  12.665000000
 C  17.898000000  15.370000000  5.679000000
 C  0.359000000  6.199000000  14.856000000
 C  17.898000000  12.148000000  3.496000000
 C  8.817000000  6.199000000  12.665000000
 C  9.624000000  12.147000000  5.679000000
 C  8.817000000  2.972000000  14.856000000
 C  9.624000000  15.370000000  3.496000000
 C  12.665000000  0.357000000  2.974000000
 C  5.679000000  17.895000000  15.372000000
 C  14.857000000  0.357000000  6.201000000
 C  3.496000000  17.895000000  12.149000000
 C  12.665000000  8.815000000  6.201000000
 C  5.679000000  9.622000000  12.149000000
 C  14.857000000  8.815000000  2.974000000
 C  3.496000000  9.622000000  15.372000000
 C  3.919000000  13.824000000  0.377000000
 C  14.429000000  4.519000000  17.823000000
 C  5.257000000  13.694000000  0.377000000
 C  13.092000000  4.652000000  17.823000000
 C  5.257000000  13.824000000  8.798000000
 C  13.092000000  4.519000000  9.699000000
 C  3.919000000  13.694000000  8.798000000
 C  14.429000000  4.652000000  9.699000000
 C  0.378000000  3.917000000  13.826000000
 C  17.823000000  14.427000000  4.521000000
 C  0.378000000  5.254000000  13.695000000
 C  17.823000000  13.090000000  4.654000000
 C  8.798000000  5.254000000  13.826000000
 C  9.699000000  13.090000000  4.521000000
 C  8.798000000  3.917000000  13.695000000
 C  9.699000000  14.427000000  4.654000000
 C  13.826000000  0.375000000  3.919000000
 C  4.521000000  17.821000000  14.429000000
 C  13.696000000  0.375000000  5.256000000
 C  4.655000000  17.821000000  13.092000000
 C  13.826000000  8.796000000  5.256000000
 C  4.521000000  9.697000000  13.092000000
 C  13.696000000  8.796000000  3.919000000
 C  4.655000000  9.697000000  14.429000000
 C  3.499000000  6.197000000  0.060000000
 C  14.849000000  12.146000000  0.037000000
 C  5.677000000  2.974000000  0.060000000
 C  12.673000000  15.371000000  0.037000000
 C  5.677000000  6.197000000  9.115000000
 C  12.673000000  12.146000000  9.138000000
 C  3.499000000  2.974000000  9.115000000
 C  14.849000000  15.371000000  9.138000000
 C  0.060000000  3.497000000  6.199000000
 C  0.037000000  14.847000000  12.148000000
 C  0.060000000  5.675000000  2.976000000
 C  0.037000000  12.670000000  15.373000000
 C  9.116000000  5.675000000  6.199000000
 C  9.139000000  12.670000000  12.148000000
 C  9.116000000  3.497000000  2.976000000
 C  9.139000000  14.847000000  15.373000000
 C  6.199000000  0.058000000  3.499000000
 C  12.148000000  0.035000000  14.849000000
 C  2.976000000  0.058000000  5.676000000
 C  15.374000000  0.035000000  12.672000000
 C  6.199000000  9.113000000  5.676000000
 C  12.148000000  9.137000000  12.672000000
 C  2.976000000  9.113000000  3.499000000
 C  15.374000000  9.136000000  14.849000000
 C  4.656000000  5.254000000  0.094000000
 C  13.692000000  13.090000000  0.059000000
 C  4.519000000  3.918000000  0.094000000
 C  13.830000000  14.427000000  0.059000000
 C  4.519000000  5.254000000  9.081000000
 C  13.830000000  13.090000000  9.116000000
 C  4.656000000  3.918000000  9.081000000
 C  13.692000000  14.427000000  9.116000000
 C  0.094000000  4.654000000  5.256000000
 C  0.059000000  13.690000000  13.092000000
 C  0.094000000  4.517000000  3.919000000
 C  0.059000000  13.828000000  14.429000000
 C  9.082000000  4.517000000  5.256000000
 C  9.116000000  13.828000000  13.092000000
 C  9.082000000  4.654000000  3.919000000
 C  9.116000000  13.690000000  14.429000000
 C  5.256000000  0.092000000  4.656000000
 C  13.093000000  0.057000000  13.692000000
 C  3.920000000  0.092000000  4.519000000
 C  14.429000000  0.057000000  13.829000000
 C  5.256000000  9.079000000  4.519000000
 C  13.093000000  9.114000000  13.829000000
 C  3.920000000  9.079000000  4.656000000
 C  14.429000000  9.114000000  13.692000000
 H  3.446000000  14.801000000  0.364000000
 H  14.901000000  3.541000000  17.831000000
 H  5.730000000  12.716000000  0.364000000
 H  12.620000000  5.631000000  17.831000000
 H  5.730000000  14.801000000  8.811000000
 H  12.620000000  3.541000000  9.690000000
 H  3.446000000  12.716000000  8.811000000
 H  14.901000000  5.631000000  9.690000000
 H  0.364000000  3.444000000  14.803000000
 H  17.832000000  14.899000000  3.542000000
 H  0.364000000  5.727000000  12.718000000
 H  17.832000000  12.618000000  5.633000000
 H  8.812000000  5.727000000  14.803000000
 H  9.690000000  12.618000000  3.542000000
 H  8.812000000  3.444000000  12.718000000
 H  9.690000000  14.899000000  5.633000000
 H  14.804000000  0.362000000  3.446000000
 H  3.543000000  17.829000000  14.901000000
 H  12.718000000  0.362000000  5.729000000
 H  5.633000000  17.829000000  12.620000000
 H  14.804000000  8.810000000  5.729000000
 H  3.543000000  9.688000000  12.620000000
 H  12.718000000  8.810000000  3.446000000
 H  5.633000000  9.688000000  14.901000000
 H  5.635000000  5.724000000  0.098000000
 H  12.713000000  12.620000000  0.060000000
 H  3.540000000  3.447000000  0.098000000
 H  14.809000000  14.898000000  0.060000000
 H  3.540000000  5.724000000  9.077000000
 H  14.808000000  12.620000000  9.115000000
 H  5.635000000  3.447000000  9.077000000
 H  12.713000000  14.898000000  9.115000000
 H  0.098000000  5.633000000  5.726000000
 H  0.060000000  12.711000000  12.622000000
 H  0.098000000  3.538000000  3.449000000
 H  0.060000000  14.806000000  14.900000000
 H  9.078000000  3.538000000  5.726000000
 H  9.116000000  14.806000000  12.622000000
 H  9.078000000  5.633000000  3.449000000
 H  9.116000000  12.711000000  14.900000000
 H  5.726000000  0.096000000  5.635000000
 H  12.622000000  0.058000000  12.713000000
 H  3.449000000  0.096000000  3.540000000
 H  14.900000000  0.058000000  14.808000000
 H  5.726000000  9.075000000  3.540000000
 H  12.622000000  9.113000000  14.808000000
 H  3.449000000  9.075000000  5.635000000
 H  14.900000000  9.113000000  12.713000000
 H  10.977000000  10.975000000  10.977000000
 H  7.124000000  7.636000000  10.963000000
 H  7.638000000  10.961000000  7.124000000
 H  10.964000000  7.122000000  7.638000000
 H  16.558000000  7.122000000  1.537000000
 H  1.537000000  10.961000000  2.051000000
 H  2.052000000  7.636000000  16.558000000
 H  16.545000000  10.975000000  16.544000000
 H  16.545000000  16.543000000  10.977000000
 H  2.052000000  1.535000000  10.963000000
 H  16.558000000  2.049000000  7.638000000
 H  1.537000000  16.556000000  7.124000000
 H  7.638000000  16.556000000  2.051000000
 H  7.124000000  1.535000000  16.558000000
 H  10.977000000  16.543000000  16.544000000
 H  10.964000000  2.049000000  1.537000000
 O  12.794000000  12.649000000  12.187000000
 H  13.629000000  12.258000000  12.377000000
 H  12.211000000  12.427000000  12.893000000
Es  12.827000000  12.568000000  12.305000000
 O  15.043000000  8.110000000  9.256000000
 H  14.327000000  7.504000000  9.165000000
 H  15.314000000  8.092000000  10.158000000
Es  14.984000000  8.028000000  9.363000000
 O -0.012000000  0.247000000  2.890000000
 H  0.322000000 -0.570000000  3.219000000
 H  0.723000000  0.748000000  2.580000000
Es  0.129000000  0.205000000  2.893000000
 O  5.541000000  6.554000000  12.757000000
 H  4.675000000  6.190000000  12.697000000
 H  5.890000000  6.315000000  13.598000000
Es  5.473000000  6.475000000  12.860000000
 O  14.978000000  3.484000000  5.890000000
 H  14.066000000  3.260000000  5.960000000
 H  15.287000000  3.154000000  5.064000000
Es  14.899000000  3.411000000  5.790000000
 O  11.644000000  17.616000000  7.524000000
 H  12.424000000  18.140000000  7.595000000
 H  11.839000000  16.899000000  6.946000000
Es  11.773000000  17.591000000  7.457000000
 O  11.779000000  6.162000000  4.018000000
 H  11.947000000  5.832000000  4.884000000
 H  11.707000000  7.099000000  4.082000000
Es  11.792000000  6.242000000  4.141000000
 O  7.325000000  10.144000000  1.444000000
 H  7.428000000  9.209000000  1.479000000
 H  7.498000000  10.414000000  0.558000000
Es  7.361000000  10.056000000  1.331000000
 O  15.103000000  15.011000000  3.209000000
 H  14.959000000  15.207000000  4.119000000
 H  15.502000000  15.768000000  2.817000000
Es  15.136000000  15.136000000  3.278000000
 O  6.308000000  12.267000000  14.942000000
 H  6.478000000  11.893000000  14.094000000
 H  6.511000000  13.185000000  14.891000000
Es  6.357000000  12.339000000  14.823000000
 O  6.378000000  12.533000000  5.873000000
 H  6.622000000  13.438000000  5.962000000
 H  6.260000000  12.362000000  4.954000000
Es  6.394000000  12.630000000  5.764000000
 O  0.725000000  9.871000000  12.277000000
 H  1.470000000  10.367000000  11.983000000
 H  0.001000000  10.092000000  11.717000000
Es  0.728000000  9.966000000  12.164000000
 O  7.465000000  0.794000000  11.076000000
 H  7.162000000  0.183000000  10.426000000
 H  8.165000000  0.378000000  11.549000000
Es  7.518000000  0.659000000  11.052000000
 O  12.216000000  3.510000000  3.148000000
 H  13.153000000  3.594000000  3.116000000
 H  11.865000000  4.353000000  3.380000000
Es  12.293000000  3.633000000  3.174000000
 O  0.514000000  12.356000000  9.064000000
 H  0.968000000  13.147000000  8.827000000
 H  1.004000000  11.634000000  8.709000000
Es  0.639000000  12.365000000  8.986000000
 O  10.759000000  16.425000000  10.108000000
 H  11.235000000  17.023000000  9.558000000
 H  10.079000000  16.039000000  9.583000000
Es  10.732000000  16.453000000  9.966000000
 O  12.335000000  15.355000000  6.215000000
 H  12.151000000  15.251000000  5.298000000
 H  11.895000000  14.659000000  6.672000000
Es  12.252000000  15.250000000  6.155000000
 O  11.648000000  10.100000000  0.515000000
 H  12.504000000  10.303000000  0.851000000
 H  11.064000000  10.781000000  0.804000000
Es  11.684000000  10.217000000  0.598000000
 O  13.474000000  6.415000000  12.344000000
 H  13.268000000  7.230000000  11.919000000
 H  14.405000000  6.402000000  12.491000000
Es  13.570000000  6.521000000  12.307000000
 O  6.300000000  14.656000000  12.906000000
 H  6.659000000  15.351000000  12.381000000
 H  6.348000000  14.929000000  13.806000000
Es  6.353000000  14.784000000  12.955000000
 O  10.226000000  2.924000000  8.034000000
 H  10.411000000  2.616000000  8.905000000
 H  9.833000000  3.776000000  8.114000000
Es  10.199000000  2.995000000  8.160000000
 O  10.359000000  10.580000000  16.128000000
 H  10.908000000  10.353000000  16.859000000
 H  9.985000000  9.781000000  15.798000000
Es  10.382000000  10.444000000  16.181000000
 O  0.711000000  2.759000000  17.561000000
 H  0.277000000  2.168000000  16.969000000
 H  1.154000000  3.406000000  17.039000000
Es  0.712000000  2.766000000  17.414000000
 O  15.444000000  12.120000000  12.388000000
 H  16.234000000  11.862000000  11.946000000
 H  15.611000000  12.074000000  13.314000000
Es  15.570000000  12.080000000  12.452000000
 O  15.097000000  12.091000000  3.082000000
 H  15.306000000  12.992000000  3.263000000
 H  15.594000000  11.834000000  2.324000000
Es  15.191000000  12.176000000  3.006000000
 O  15.649000000  15.021000000  15.085000000
 H  15.939000000  15.080000000  14.191000000
 H  16.042000000  15.735000000  15.557000000
Es  15.739000000  15.123000000  15.029000000
 O  3.506000000  14.260000000  12.463000000
 H  3.088000000  14.797000000  13.115000000
 H  4.436000000  14.380000000  12.555000000
Es  3.574000000  14.347000000  12.561000000
 O  9.075000000  17.197000000  6.632000000
 H  9.236000000  17.090000000  5.710000000
 H  9.913000000  17.268000000  7.057000000
Es  9.207000000  17.192000000  6.566000000
 O  3.282000000  15.253000000  15.739000000
 H  3.329000000  14.317000000  15.642000000
 H  2.376000000  15.477000000  15.869000000
Es  3.169000000  15.159000000  15.743000000
 O  12.222000000  11.616000000  3.315000000
 H  12.051000000  12.409000000  3.793000000
 H  13.055000000  11.720000000  2.888000000
Es  12.309000000  11.735000000  3.322000000
 O  8.046000000  7.464000000  1.315000000
 H  7.685000000  7.030000000  2.069000000
 H  8.357000000  6.797000000  0.728000000
Es  8.039000000  7.319000000  1.337000000
 O  0.804000000  5.678000000  9.199000000
 H  0.161000000  6.085000000  8.644000000
 H  1.450000000  5.283000000  8.639000000
Es  0.804000000  5.679000000  9.052000000
 O  16.567000000  17.196000000  16.425000000
 H  15.847000000  17.589000000  16.887000000
 H  17.103000000  17.894000000  16.091000000
Es  16.543000000  17.340000000  16.442000000
 O  6.039000000  3.377000000  3.264000000
 H  6.363000000  4.261000000  3.246000000
 H  6.384000000  2.935000000  2.507000000
Es  6.127000000  3.435000000  3.162000000
 O  2.835000000  6.097000000  3.741000000
 H  2.898000000  6.285000000  4.662000000
 H  2.333000000  6.789000000  3.345000000
Es  2.777000000  6.213000000  3.810000000
 O  10.923000000  7.318000000  16.469000000
 H  10.835000000  7.423000000  17.401000000
 H  10.113000000  7.596000000  16.077000000
Es  10.805000000  7.369000000  16.540000000
 O  3.312000000  15.477000000  3.104000000
 H  4.141000000  15.883000000  2.919000000
 H  2.681000000  15.837000000  2.504000000
Es  3.338000000  15.578000000  3.001000000
 O  5.883000000  3.481000000  12.390000000
 H  6.255000000  2.770000000  11.896000000
 H  6.455000000  4.222000000  12.292000000
Es  6.008000000  3.485000000  12.312000000
 O  2.238000000  11.848000000  11.416000000
 H  2.679000000  12.609000000  11.754000000
 H  1.910000000  12.070000000  10.561000000
Es  2.253000000  11.978000000  11.348000000
 O  15.092000000  3.466000000  3.103000000
 H  14.859000000  4.340000000  2.838000000
 H  15.813000000  3.192000000  2.562000000
Es  15.156000000  3.545000000  2.996000000
 O  5.649000000  3.214000000  15.350000000
 H  5.801000000  3.027000000  14.439000000
 H  5.744000000  4.144000000  15.466000000
Es  5.681000000  3.312000000  15.245000000
 O  17.369000000  14.775000000  0.269000000
 H  16.763000000  14.078000000  0.085000000
 H  17.779000000  15.014000000 -0.544000000
Es  17.343000000  14.714000000  0.138000000
 O  12.248000000  2.862000000  6.309000000
 H  11.454000000  2.786000000  6.809000000
 H  12.002000000  3.004000000  5.410000000
Es  12.111000000  2.871000000  6.256000000
 O  2.876000000  2.923000000  15.715000000
 H  3.812000000  3.020000000  15.693000000
 H  2.684000000  2.159000000  16.232000000
Es  2.974000000  2.835000000  15.780000000
 O  3.386000000  12.320000000  5.966000000
 H  4.251000000  12.301000000  6.339000000
 H  2.877000000  11.658000000  6.402000000
Es  3.433000000  12.230000000  6.073000000
 O  13.943000000  11.995000000  6.116000000
 H  13.958000000  11.766000000  5.202000000
 H  14.406000000  12.810000000  6.210000000
Es  14.006000000  12.072000000  6.008000000
 O  6.115000000  18.187000000  9.088000000
 H  5.461000000  18.836000000  9.284000000
 H  6.668000000  18.539000000  8.412000000
Es  6.102000000  18.319000000  9.025000000
 O  3.634000000  12.693000000  15.453000000
 H  3.096000000  11.951000000  15.672000000
 H  4.506000000  12.372000000  15.297000000
Es  3.678000000  12.552000000  15.461000000
 O  6.123000000  12.142000000  2.952000000
 H  5.193000000  12.048000000  2.841000000
 H  6.534000000  11.419000000  2.511000000
Es  6.055000000  12.035000000  2.879000000
 O  12.054000000  12.571000000  14.835000000
 H  12.071000000  13.464000000  15.132000000
 H  11.438000000  12.106000000  15.375000000
Es  11.975000000  12.627000000  14.945000000
 O  8.672000000  8.382000000  15.332000000
 H  8.751000000  8.067000000  14.448000000
 H  7.754000000  8.481000000  15.515000000
Es  8.561000000  8.354000000  15.240000000
 O  12.556000000  1.016000000  9.841000000
 H  11.945000000  1.577000000  10.286000000
 H  13.145000000  1.569000000  9.357000000
Es  12.553000000  1.163000000  9.836000000
 O  14.981000000  12.449000000  15.089000000
 H  14.056000000  12.301000000  14.996000000
 H  15.107000000  13.374000000  15.215000000
Es  14.876000000  12.551000000  15.093000000
 O  9.885000000  18.127000000  12.245000000
 H  10.047000000  17.264000000  11.904000000
 H  10.318000000  18.186000000  13.079000000
Es  9.963000000  18.021000000  12.310000000
 O  17.761000000  1.101000000  15.722000000
 H  18.253000000  1.056000000  14.920000000
 H  17.087000000  1.749000000  15.604000000
Es  17.737000000  1.181000000  15.601000000
 O  12.568000000  5.533000000  6.592000000
 H  12.555000000  4.600000000  6.722000000
 H  13.403000000  5.848000000  6.893000000
Es  12.676000000  5.451000000  6.649000000
 O  16.939000000  10.979000000  10.483000000
 H  16.272000000  10.643000000  9.909000000
 H  17.443000000  11.607000000  9.993000000
Es  16.918000000  11.018000000  10.343000000
 O  8.705000000  5.392000000  17.632000000
 H  9.622000000  5.358000000  17.844000000
 H  8.608000000  5.072000000  16.752000000
Es  8.813000000  5.345000000  17.544000000
 O  3.624000000  3.380000000  5.961000000
 H  3.458000000  3.241000000  5.044000000
 H  4.440000000  2.958000000  6.167000000
Es  3.710000000  3.306000000  5.867000000
 O  6.352000000  14.980000000  3.502000000
 H  6.165000000  14.164000000  3.071000000
 H  6.180000000  14.860000000  4.420000000
Es  6.305000000  14.857000000  3.567000000
 O  5.929000000  5.695000000  5.930000000
 H  5.002000000  5.851000000  5.992000000
 H  6.088000000  4.819000000  6.240000000
Es  5.828000000  5.600000000  5.979000000
 O  2.857000000  6.290000000  6.427000000
 H  2.911000000  5.351000000  6.479000000
 H  2.658000000  6.609000000  7.290000000
Es  2.838000000  6.208000000  6.547000000
 O  6.280000000  2.826000000  6.105000000
 H  7.078000000  2.484000000  6.468000000
 H  6.390000000  2.866000000  5.170000000
Es  6.400000000  2.786000000  6.030000000
 O  16.396000000  16.953000000  1.758000000
 H  16.768000000  16.243000000  1.262000000
 H  17.111000000  17.445000000  2.124000000
Es  16.540000000  16.924000000  1.741000000
 O  10.408000000  2.203000000  10.763000000
 H  10.829000000  2.616000000  11.497000000
 H  10.072000000  1.375000000  11.061000000
Es  10.419000000  2.148000000  10.899000000
 O  12.593000000  5.769000000  14.789000000
 H  12.395000000  6.005000000  13.899000000
 H  12.013000000  6.260000000  15.346000000
Es  12.491000000  5.865000000  14.745000000
 O  15.200000000  5.930000000  7.084000000
 H  15.275000000  5.178000000  6.522000000
 H  16.073000000  6.190000000  7.324000000
Es  15.325000000  5.865000000  7.041000000
 O  1.072000000  16.695000000  17.089000000
 H  1.654000000  17.434000000  17.044000000
 H  0.207000000  17.006000000  16.884000000
Es  1.035000000  16.833000000  17.056000000
 O  16.821000000  2.514000000  1.321000000
 H  17.244000000  1.761000000  1.697000000
 H  17.432000000  2.912000000  0.724000000
Es  16.958000000  2.468000000  1.292000000
 O  13.030000000  3.099000000  15.018000000
 H  12.572000000  2.765000000  15.771000000
 H  12.838000000  4.018000000  14.956000000
Es  12.944000000  3.176000000  15.110000000
 O  10.186000000  9.429000000  2.769000000
 H  9.309000000  9.679000000  3.002000000
 H  10.730000000  10.192000000  2.857000000
Es  10.142000000  9.562000000  2.812000000
 O  3.120000000  12.462000000  3.326000000
 H  3.218000000  12.172000000  4.217000000
 H  3.028000000  13.399000000  3.344000000
Es  3.121000000  12.547000000  3.446000000
 O  3.093000000  5.729000000  11.997000000
 H  2.611000000  4.946000000  11.793000000
 H  2.600000000  6.459000000  11.663000000
Es  2.964000000  5.722000000  11.926000000
 O  16.299000000  6.554000000  11.805000000
 H  16.100000000  6.665000000  12.719000000
 H  16.641000000  5.683000000  11.696000000
Es  16.318000000  6.454000000  11.912000000
 O  12.180000000  15.314000000  12.150000000
 H  11.735000000  15.722000000  11.427000000
 H  12.085000000  14.382000000  12.050000000
Es  12.109000000  15.245000000  12.041000000
 O  1.124000000  16.273000000  1.614000000
 H  0.634000000  15.470000000  1.572000000
 H  1.214000000  16.594000000  0.733000000
Es  1.071000000  16.210000000  1.492000000
 O  5.975000000  5.891000000  15.322000000
 H  6.235000000  6.620000000  15.859000000
 H  5.044000000  5.954000000  15.194000000
Es  5.887000000  5.995000000  15.376000000
 O  15.542000000  6.054000000  14.919000000
 H  16.026000000  6.563000000  15.547000000
 H  14.635000000  6.087000000  15.168000000
Es  15.486000000  6.125000000  15.035000000
 O  2.945000000  8.247000000  8.398000000
 H  3.769000000  7.793000000  8.434000000
 H  2.612000000  8.298000000  9.277000000
Es  3.009000000  8.194000000  8.519000000
 O  14.811000000  0.219000000  18.225000000
 H  14.906000000  1.096000000  18.556000000
 H  14.857000000 -0.366000000  18.962000000
Es  14.830000000  0.257000000  18.366000000
 O  12.158000000  3.841000000  12.557000000
 H  12.611000000  3.475000000  13.297000000
 H  12.762000000  4.407000000  12.108000000
Es  12.297000000  3.867000000  12.595000000
 O  14.046000000  5.856000000  2.385000000
 H  13.994000000  6.377000000  1.602000000
 H  13.307000000  6.082000000  2.923000000
Es  13.942000000  5.954000000  2.353000000
 O  6.392000000  8.329000000  17.101000000
 H  5.879000000  9.078000000  17.352000000
 H  6.704000000  7.924000000  17.892000000
Es  6.365000000  8.374000000  17.239000000
 O  5.940000000  14.948000000  15.598000000
 H  5.026000000  15.050000000  15.803000000
 H  6.418000000  15.560000000  16.131000000
Es  5.882000000  15.042000000  15.695000000
 O  2.780000000  0.445000000  17.157000000
 H  2.606000000  0.889000000  17.969000000
 H  3.705000000  0.273000000  17.122000000
Es  2.879000000  0.481000000  17.259000000
 O  15.968000000  3.229000000  15.270000000
 H  15.099000000  2.878000000  15.365000000
 H  15.904000000  4.165000000  15.351000000
Es  15.845000000  3.306000000  15.293000000
 O  3.281000000  5.499000000  14.756000000
 H  3.184000000  5.276000000  13.847000000
 H  3.205000000  4.701000000  15.252000000
Es  3.258000000  5.364000000  14.702000000
 O  14.975000000  14.597000000  6.304000000
 H  15.713000000  14.786000000  6.857000000
 H  14.222000000  15.016000000  6.686000000
Es  14.973000000  14.677000000  6.427000000
 O  14.965000000  15.086000000  12.334000000
 H  14.061000000  15.318000000  12.200000000
 H  15.053000000  14.170000000  12.134000000
Es  14.857000000  14.996000000  12.290000000
 O  17.459000000  7.578000000  7.705000000
 H  17.802000000  8.325000000  7.246000000
 H  16.702000000  7.866000000  8.185000000
Es  17.404000000  7.714000000  7.707000000
 O  12.601000000  15.239000000  15.018000000
 H  12.525000000  15.453000000  14.104000000
 H  13.488000000  14.963000000  15.170000000
Es  12.708000000  15.231000000  14.918000000
 O  6.404000000  6.219000000  3.344000000
 H  6.384000000  6.169000000  4.284000000
 H  5.598000000  6.617000000  3.065000000
Es  6.295000000  6.265000000  3.431000000
 O  7.395000000  16.238000000  10.731000000
 H  7.779000000  15.727000000  10.040000000
 H  6.778000000  16.829000000  10.335000000
Es  7.364000000  16.249000000  10.588000000
 O  5.882000000  15.463000000  6.277000000
 H  6.205000000  16.274000000  6.632000000
 H  4.946000000  15.462000000  6.382000000
Es  5.802000000  15.570000000  6.337000000
 O  3.350000000  3.466000000  3.014000000
 H  4.289000000  3.422000000  2.955000000
 H  3.120000000  4.361000000  3.193000000
Es  3.443000000  3.578000000  3.029000000
 O  12.530000000  14.496000000  3.232000000
 H  11.843000000  14.444000000  2.590000000
 H  13.336000000  14.654000000  2.771000000
Es  12.546000000  14.510000000  3.087000000
 O  3.421000000  2.439000000  13.054000000
 H  4.220000000  2.872000000  12.806000000
 H  3.205000000  2.725000000  13.925000000
Es  3.498000000  2.534000000  13.137000000
 O  1.706000000  1.770000000  1.520000000
 H  2.177000000  2.395000000  2.044000000
 H  1.268000000  2.247000000  0.837000000
Es  1.710000000  1.915000000  1.499000000
 O  3.046000000  14.989000000  5.803000000
 H  3.077000000  15.152000000  4.876000000
 H  3.184000000  14.066000000  5.932000000
Es  3.069000000  14.889000000  5.698000000
 O  18.041000000  10.079000000  6.501000000
 H  17.197000000  10.398000000  6.773000000
 H  18.112000000  10.228000000  5.574000000
Es  17.939000000  10.141000000  6.414000000
 O  2.074000000  10.756000000  7.516000000
 H  1.265000000  10.389000000  7.205000000
 H  2.598000000  10.045000000  7.843000000
Es  2.037000000  10.614000000  7.518000000
 O  8.706000000  15.106000000  8.642000000
 H  8.163000000  14.352000000  8.488000000
 H  8.584000000  15.695000000  7.917000000
Es  8.618000000  15.084000000  8.526000000
 O  8.014000000  1.176000000  7.355000000
 H  8.349000000  0.336000000  7.091000000
 H  8.668000000  1.582000000  7.898000000
Es  8.145000000  1.119000000  7.392000000
 O  1.902000000  7.975000000  10.764000000
 H  1.361000000  7.298000000  10.395000000
 H  1.346000000  8.524000000  11.290000000
Es  1.757000000  7.958000000  10.785000000
 O  11.080000000  7.552000000  0.812000000
 H  10.581000000  7.671000000  1.601000000
 H  11.442000000  8.389000000  0.578000000
Es  11.062000000  7.678000000  0.885000000
 O  15.564000000  10.515000000  7.747000000
 H  14.924000000  10.911000000  7.180000000
 H  15.265000000  9.644000000  7.944000000
Es  15.441000000  10.452000000  7.698000000
 O  15.584000000  3.412000000  12.513000000
 H  15.578000000  3.267000000  13.443000000
 H  15.683000000  2.572000000  12.098000000
Es  15.596000000  3.282000000  12.581000000
 O  7.711000000  11.326000000  17.062000000
 H  8.614000000  11.216000000  16.819000000
 H  7.252000000  11.647000000  16.304000000
Es  7.770000000  11.354000000  16.930000000
 O  9.693000000  11.972000000  1.137000000
 H  9.074000000  12.512000000  0.676000000
 H  9.218000000  11.244000000  1.499000000
Es  9.549000000  11.947000000  1.124000000
 O  7.926000000  3.303000000  9.994000000
 H  8.645000000  3.559000000  10.546000000
 H  7.565000000  2.510000000  10.352000000
Es  7.973000000  3.232000000  10.114000000
